SOL 101
CEND
TITLE = MSC.Nastran job for Missile
ECHO = NONE
SUBCASE 1
   SUBTITLE=Default
   LOAD = 3
   STRESS(SORT1,PUNCH,REAL,VONMISES)=ALL
   STRAIN(SORT1,PUNCH,REAL,VONMISES)=ALL
   DISPLACEMENT(SORT1,REAL)=ALL
$$------------------------------------------------------------------------------$
$$                                Bulk Data Cards                               $
$$------------------------------------------------------------------------------$
BEGIN BULK
PARAM   POST     0
PARAM   PRTMAXIM YES
PARAM,INREL,-2
GRID*                  1               0              0.              0.*
*                     0.
GRID*                 51               0        0.0809530.04518667046823*
*                     0.
GRID*                 52               0        0.0809530.04483036008712*
*       0.00566339142769
GRID*                 53               0        0.0809530.04376704817117*
*       0.01123746779246
GRID*                 54               0        0.0809530.04201350378391*
*       0.01663432258325
GRID*                 55               0        0.080953 0.0395973813669*
*       0.02176884417897
GRID*                 56               0        0.0809530.03655678461269*
*       0.02656005810961
GRID*                 57               0        0.0809530.03293966554681*
*       0.03093240407192
GRID*                 58               0        0.0809530.02880306829575*
*       0.03481692756052
GRID*                 59               0        0.0809530.02421222946703*
*       0.03815236732157
GRID*                 60               0        0.0809530.01923954932894*
*       0.04088612147934
GRID*                 61               0        0.0809530.01396345001511*
*       0.04297507709917
GRID*                 62               0        0.080953 0.0084671387607*
*       0.04438629010417
GRID*                 63               0        0.0809530.00283729567455*
*       0.04509750482299
GRID*                 64               0        0.080953-0.0028372932578*
*       0.04509750497504
GRID*                 65               0        0.080953 -0.008467136382*
*       0.04438629055792
GRID*                 66               0        0.080953-0.0139634477121*
*       0.04297507784747
GRID*                 67               0        0.080953-0.0192395471379*
*       0.04088612251039
GRID*                 68               0        0.080953-0.0242122274225*
*        0.0381523686191
GRID*                 69               0        0.080953-0.0288030664299*
*       0.03481692910407
$ ... 23462 like lines cut
CTRIA3         1       1       1      51      52
CTRIA3         2       1       1      52      53
CTRIA3         3       1       1      53      54
CTRIA3         4       1       1      54      55
CTRIA3         5       1       1      55      56
CTRIA3         6       1       1      56      57
CTRIA3         7       1       1      57      58
CTRIA3         8       1       1      58      59
CTRIA3         9       1       1      59      60
CTRIA3        10       1       1      60      61
CTRIA3        11       1       1      61      62
CTRIA3        12       1       1      62      63
CTRIA3        13       1       1      63      64
CTRIA3        14       1       1      64      65
CTRIA3        15       1       1      65      66
CTRIA3        16       1       1      66      67
CTRIA3        17       1       1      67      68
CTRIA3        18       1       1      68      69
CTRIA3        19       1       1      69      70
CTRIA3        20       1       1      70      71
$ ... 30 like lines cut
CQUAD4        51       1      51     101     102      52
CQUAD4        52       1      52     102     103      53
CQUAD4        53       1      53     103     104      54
CQUAD4        54       1      54     104     105      55
CQUAD4        55       1      55     105     106      56
CQUAD4        56       1      56     106     107      57
CQUAD4        57       1      57     107     108      58
CQUAD4        58       1      58     108     109      59
CQUAD4        59       1      59     109     110      60
CQUAD4        60       1      60     110     111      61
CQUAD4        61       1      61     111     112      62
CQUAD4        62       1      62     112     113      63
CQUAD4        63       1      63     113     114      64
CQUAD4        64       1      64     114     115      65
CQUAD4        65       1      65     115     116      66
CQUAD4        66       1      66     116     117      67
CQUAD4        67       1      67     117     118      68
CQUAD4        68       1      68     118     119      69
CQUAD4        69       1      69     119     120      70
CQUAD4        70       1      70     120     121      71
$ ... 11680 like lines cut
CBAR       11751       8    1251    1252      0.0.462523      0.
CBAR       11752       8    1252    1253      0.0.458876 0.05797
CBAR       11753       8    1253    1254      0.0.4479920.115025
CBAR       11754       8    1254    1255      0.0.4300430.170266
CBAR       11755       8    1255    1256      0.0.4053120.222822
CBAR       11756       8    1256    1257      0.0.3741890.271864
CBAR       11757       8    1257    1258      0.0.3371650.316619
CBAR       11758       8    1258    1259      0.0.294823 0.35638
CBAR       11759       8    1259    1260      0.0.2478320.390521
CBAR       11760       8    1260    1261      0.0.1969330.418503
CBAR       11761       8    1261    1262      0.0.1429280.439886
CBAR       11762       8    1262    1263      0.0.0866680.454331
CBAR       11763       8    1263    1264      0.0.029042 0.46161
CBAR       11764       8    1264    1265      0.-0.02904 0.46161
CBAR       11765       8    1265    1266      0.-0.086670.454331
CBAR       11766       8    1266    1267      0.-0.142930.439886
CBAR       11767       8    1267    1268      0.-0.196930.418503
CBAR       11768       8    1268    1269      0.-0.247830.390521
CBAR       11769       8    1269    1270      0.-0.29482 0.35638
CBAR       11770       8    1270    1271      0.-0.337160.316619
$ ... 480 like lines cut
GRID*              11801               0            3.35            0.01*
*                   0.01
CMASS2     12251   25.72   11801       1
RBE3       12252           11801  123456      1.     123    1251    1252
            1253    1254    1255    1256    1257    1258    1259    1260
            1261    1262    1263    1264    1265    1266    1267    1268
            1269    1270    1271    1272    1273    1274    1275    1276
            1277    1278    1279    1280    1281    1282    1283    1284
            1285    1286    1287    1288    1289    1290    1291    1292
            1293    1294    1295    1296    1297    1298    1299    1300
            1301    1302    1303    1304    1305    1306    1307    1308
            1309    1310    1311    1312    1313    1314    1315    1316
            1317    1318    1319    1320    1321    1322    1323    1324
            1325    1326    1327    1328    1329    1330    1331    1332
            1333    1334    1335    1336    1337    1338    1339    1340
            1341    1342    1343    1344    1345    1346    1347    1348
            1349    1350    1351    1352    1353    1354    1355    1356
            1357    1358    1359    1360    1361    1362    1363    1364
            1365    1366    1367    1368    1369    1370    1371    1372
            1373    1374    1375    1376    1377    1378    1379    1380
            1381    1382    1383    1384    1385    1386    1387    1388
            1389    1390    1391    1392    1393    1394    1395    1396
            1397    1398    1399    1400    1401    1402    1403    1404
            1405    1406    1407    1408    1409    1410    1411    1412
$ ... 143 like lines cut
GRID*              11802               0             3.5            0.01*
*                   0.01
CMASS2     12253  502.65   11802       1
RBE3       12254           11802  123456      1.     123    1251    1252
            1253    1254    1255    1256    1257    1258    1259    1260
            1261    1262    1263    1264    1265    1266    1267    1268
            1269    1270    1271    1272    1273    1274    1275    1276
            1277    1278    1279    1280    1281    1282    1283    1284
            1285    1286    1287    1288    1289    1290    1291    1292
            1293    1294    1295    1296    1297    1298    1299    1300
            1301    1302    1303    1304    1305    1306    1307    1308
            1309    1310    1311    1312    1313    1314    1315    1316
            1317    1318    1319    1320    1321    1322    1323    1324
            1325    1326    1327    1328    1329    1330    1331    1332
            1333    1334    1335    1336    1337    1338    1339    1340
            1341    1342    1343    1344    1345    1346    1347    1348
            1349    1350    1351    1352    1353    1354    1355    1356
            1357    1358    1359    1360    1361    1362    1363    1364
            1365    1366    1367    1368    1369    1370    1371    1372
            1373    1374    1375    1376    1377    1378    1379    1380
            1381    1382    1383    1384    1385    1386    1387    1388
            1389    1390    1391    1392    1393    1394    1395    1396
            1397    1398    1399    1400    1401    1402    1403    1404
            1405    1406    1407    1408    1409    1410    1411    1412
$ ... 143 like lines cut
GRID*              11803               0           14.32            0.01*
*                   0.01
CMASS2     1225519208.93   11803       1
RBE3       12256           11803  123456      1.     123    6251    6252
            6253    6254    6255    6256    6257    6258    6259    6260
            6261    6262    6263    6264    6265    6266    6267    6268
            6269    6270    6271    6272    6273    6274    6275    6276
            6277    6278    6279    6280    6281    6282    6283    6284
            6285    6286    6287    6288    6289    6290    6291    6292
            6293    6294    6295    6296    6297    6298    6299    6300
            6301    6302    6303    6304    6305    6306    6307    6308
            6309    6310    6311    6312    6313    6314    6315    6316
            6317    6318    6319    6320    6321    6322    6323    6324
            6325    6326    6327    6328    6329    6330    6331    6332
            6333    6334    6335    6336    6337    6338    6339    6340
            6341    6342    6343    6344    6345    6346    6347    6348
            6349    6350    6351    6352    6353    6354    6355    6356
            6357    6358    6359    6360    6361    6362    6363    6364
            6365    6366    6367    6368    6369    6370    6371    6372
            6373    6374    6375    6376    6377    6378    6379    6380
            6381    6382    6383    6384    6385    6386    6387    6388
            6389    6390    6391    6392    6393    6394    6395    6396
            6397    6398    6399    6400    6401    6402    6403    6404
            6405    6406    6407    6408    6409    6410    6411    6412
$ ... 605 like lines cut
GRID*              11804               0            8.25            0.01*
*                   0.01
CMASS2     12257 6911.21   11804       1
RBE3       12258           11804  123456      1.     123    4251    4252
            4253    4254    4255    4256    4257    4258    4259    4260
            4261    4262    4263    4264    4265    4266    4267    4268
            4269    4270    4271    4272    4273    4274    4275    4276
            4277    4278    4279    4280    4281    4282    4283    4284
            4285    4286    4287    4288    4289    4290    4291    4292
            4293    4294    4295    4296    4297    4298    4299    4300
            4301    4302    4303    4304    4305    4306    4307    4308
            4309    4310    4311    4312    4313    4314    4315    4316
            4317    4318    4319    4320    4321    4322    4323    4324
            4325    4326    4327    4328    4329    4330    4331    4332
            4333    4334    4335    4336    4337    4338    4339    4340
            4341    4342    4343    4344    4345    4346    4347    4348
            4349    4350    4351    4352    4353    4354    4355    4356
            4357    4358    4359    4360    4361    4362    4363    4364
            4365    4366    4367    4368    4369    4370    4371    4372
            4373    4374    4375    4376    4377    4378    4379    4380
            4381    4382    4383    4384    4385    4386    4387    4388
            4389    4390    4391    4392    4393    4394    4395    4396
            4397    4398    4399    4400    4401    4402    4403    4404
            4405    4406    4407    4408    4409    4410    4411    4412
$ ... 168 like lines cut
GRID*              11805               0              5.            0.01*
*                   0.01
CMASS2     122593376.139   11805       1
RBE3       12260           11805  123456      1.     123    2501    2502
            2503    2504    2505    2506    2507    2508    2509    2510
            2511    2512    2513    2514    2515    2516    2517    2518
            2519    2520    2521    2522    2523    2524    2525    2526
            2527    2528    2529    2530    2531    2532    2533    2534
            2535    2536    2537    2538    2539    2540    2541    2542
            2543    2544    2545    2546    2547    2548    2549    2550
            2551    2552    2553    2554    2555    2556    2557    2558
            2559    2560    2561    2562    2563    2564    2565    2566
            2567    2568    2569    2570    2571    2572    2573    2574
            2575    2576    2577    2578    2579    2580    2581    2582
            2583    2584    2585    2586    2587    2588    2589    2590
            2591    2592    2593    2594    2595    2596    2597    2598
            2599    2600    2601    2602    2603    2604    2605    2606
            2607    2608    2609    2610    2611    2612    2613    2614
            2615    2616    2617    2618    2619    2620    2621    2622
            2623    2624    2625    2626    2627    2628    2629    2630
            2631    2632    2633    2634    2635    2636    2637    2638
            2639    2640    2641    2642    2643    2644    2645    2646
            2647    2648    2649    2650    2651    2652    2653    2654
            2655    2656    2657    2658    2659    2660    2661    2662
$ ... 136 like lines cut
GRID*              11806               0             15.              0.*
*                    0.1
RBE2       12261   11806  123456    8951    8952    8953    8954    8955
            8956    8957    8958    8959    8960    8961    8962    8963
            8964    8965    8966    8967    8968    8969    8970    8971
            8972    8973    8974    8975    8976    8977    8978    8979
            8980    8981    8982    8983    8984    8985    8986    8987
            8988    8989    8990    8991    8992    8993    8994    8995
            8996    8997    8998    8999    9000
PLOAD          1-0.31792       1      51      52        
PLOAD          1-0.31916       1      52      53        
PLOAD          1 -0.3204       1      53      54        
PLOAD          1-0.32164       1      54      55        
PLOAD          1-0.32386       1      55      56        
PLOAD          1-0.32726       1      56      57        
PLOAD          1-0.33087       1      57      58        
PLOAD          1-0.33447       1      58      59        
PLOAD          1-0.33868       1      59      60        
PLOAD          1-0.34381       1      60      61        
PLOAD          1-0.34924       1      61      62        
PLOAD          1-0.35467       1      62      63        
PLOAD          1-0.36025       1      63      64        
PLOAD          1-0.36613       1      64      65        
PLOAD          1-0.37215       1      65      66        
PLOAD          1-0.37818       1      66      67        
PLOAD          1  -0.384       1      67      68        
PLOAD          1 -0.3892       1      68      69        
PLOAD          1-0.39399       1      69      70        
PLOAD          1-0.39878       1      70      71        
$ ... 11730 like lines cut
FORCE*                 2           11806               0              1.*
*                270000.              0.              0.
LOAD           3      1.      1.       1      1.       2
$-- Property cabin_1 --$
PSHELL         1       10.011402
$-- Property cabin_2 --$
PSHELL         2       20.011423
$-- Property cabin_3 --$
PSHELL         3       30.011375
$-- Property cabin_4 --$
PSHELL         4       40.011446
$-- Property cabin_5 --$
PSHELL         5       50.011449
$-- Property cabin_6 --$
PSHELL         6       60.011448
$-- Property cabin_7 --$
PSHELL         7       70.011374
$-- Property bulkhead property id = 1 --$
PBARL          8       8            CHAN                                
            0.08   0.064   0.064   0.024
$-- Property bulkhead property id = 2 --$
PBARL          9       9            CHAN                                
            0.08   0.064   0.064   0.024
$-- Property bulkhead property id = 3 --$
PBARL         10      10            CHAN                                
            0.08   0.064   0.064   0.024
$-- Property bulkhead property id = 4 --$
PBARL         11      11            CHAN                                
            0.08   0.064   0.064   0.024
$-- Property bulkhead property id = 5 --$
PBARL         12      12            CHAN                                
            0.08   0.064   0.064   0.024
$-- Property bulkhead property id = 6 --$
PBARL         13      13            CHAN                                
            0.08   0.064   0.064   0.024
$-- Property bulkhead property id = 7 --$
PBARL         14      14            CHAN                                
            0.08   0.064   0.064   0.024
$-- Property bulkhead property id = 8 --$
PBARL         15      15            CHAN                                
            0.08   0.064   0.064   0.024
$-- Property bulkhead property id = 9 --$
PBARL         16      16            CHAN                                
            0.08   0.064   0.064   0.024
$-- Property bulkhead property id = 10 --$
PBARL         17      17            CHAN                                
            0.08   0.064   0.064   0.024
$-- Material Cabin mat8 id = 1 --$
MAT8           1 7.3e+10 7.3e+10    0.31 2.8e+10 2.8e+10 2.8e+10   2770.
$-- Material Cabin mat8 id = 2 --$
MAT8           2 1.2e+11 7.1e+09    0.28 3.7e+09 3.7e+09 4.8e+09   1700.
$-- Material Cabin mat8 id = 3 --$
MAT8           3 7.3e+10 7.3e+10    0.31 2.8e+10 2.8e+10 2.8e+10   2770.
$-- Material Cabin mat8 id = 4 --$
MAT8           4 1.1e+11 1.1e+11    0.33 4.3e+10 4.3e+10 4.3e+10   4440.
$-- Material Cabin mat8 id = 5 --$
MAT8           5 7.3e+10 7.3e+10    0.31 2.8e+10 2.8e+10 2.8e+10   2770.
$-- Material Cabin mat8 id = 6 --$
MAT8           6 2.1e+11 2.1e+11     0.3 8.1e+10 8.1e+10 8.1e+10   7900.
$-- Material Cabin mat8 id = 7 --$
MAT8           7 7.3e+10 7.3e+10    0.31 2.8e+10 2.8e+10 2.8e+10   2770.
$-- Material bulkhead mat1 id = 1 --$
MAT1           8 2.1e+11             0.3   2700.
$-- Material bulkhead mat1 id = 2 --$
MAT1           9 2.1e+11             0.3   2700.
$-- Material bulkhead mat1 id = 3 --$
MAT1          10 2.1e+11             0.3   2700.
$-- Material bulkhead mat1 id = 4 --$
MAT1          11 2.1e+11             0.3   2700.
$-- Material bulkhead mat1 id = 5 --$
MAT1          12 2.1e+11             0.3   2700.
$-- Material bulkhead mat1 id = 6 --$
MAT1          13 2.1e+11             0.3   2700.
$-- Material bulkhead mat1 id = 7 --$
MAT1          14 2.1e+11             0.3   2700.
$-- Material bulkhead mat1 id = 8 --$
MAT1          15 2.1e+11             0.3   2700.
$-- Material bulkhead mat1 id = 9 --$
MAT1          16 2.1e+11             0.3   2700.
$-- Material bulkhead mat1 id = 10 --$
MAT1          17 2.1e+11             0.3   2700.
ENDDATA
